@<TRIPOS>MOLECULE
1fdu_EST_4_ligand
   44    47     1     0     0
SMALL
NO_CHARGES


@<TRIPOS>ATOM
     1 C1           8.0160    59.0230     9.4360 C.ar         1 EST352   0.0000
     2 C2           7.8780    60.3930     9.6660 C.ar         1 EST352   0.0000
     3 C3           6.8200    61.0560     9.0950 C.ar         1 EST352   0.0000
     4 O3           6.6070    62.4210     9.2720 O.3          1 EST352   0.0000
     5 C4           5.8730    60.3790     8.2760 C.ar         1 EST352   0.0000
     6 C5           6.0440    58.9940     8.0430 C.ar         1 EST352   0.0000
     7 C6           5.0420    58.2770     7.1800 C.3          1 EST352   0.0000
     8 C7           5.1250    56.7800     7.0620 C.3          1 EST352   0.0000
     9 C8           5.9610    56.0110     8.0840 C.3          1 EST352   0.0000
    10 C9           7.2790    56.8000     8.3530 C.3          1 EST352   0.0000
    11 C10          7.1310    58.2840     8.6280 C.ar         1 EST352   0.0000
    12 C11          8.1600    56.1320     9.4150 C.3          1 EST352   0.0000
    13 C12          8.3660    54.6220     9.1450 C.3          1 EST352   0.0000
    14 C13          7.0830    53.8430     8.9500 C.3          1 EST352   0.0000
    15 C14          6.1850    54.5300     7.9020 C.3          1 EST352   0.0000
    16 C15          5.1560    53.4610     7.5820 C.3          1 EST352   0.0000
    17 C16          5.9020    52.0890     7.8010 C.3          1 EST352   0.0000
    18 C17          7.3300    52.4940     8.2130 C.3          1 EST352   0.0000
    19 O17          8.0710    51.5600     8.9660 O.3          1 EST352   0.0000
    20 C18          6.4140    53.4170    10.2560 C.3          1 EST352   0.0000
    21 H1           8.7807    58.5431     9.8661 H            1 EST352   0.0000
    22 H2           8.5377    60.8825    10.2362 H            1 EST352   0.0000
    23 H3           5.8233    62.8652     8.8379 H            1 EST352   0.0000
    24 H4           5.1021    60.8725     7.8733 H            1 EST352   0.0000
    25 H5           5.1301    58.6497     6.2562 H            1 EST352   0.0000
    26 H6           4.1351    58.4932     7.5416 H            1 EST352   0.0000
    27 H7           5.5027    56.5760     6.1588 H            1 EST352   0.0000
    28 H8           4.1910    56.4275     7.1201 H            1 EST352   0.0000
    29 H9           5.4451    56.0845     8.9375 H            1 EST352   0.0000
    30 H10          7.8006    56.7402     7.5019 H            1 EST352   0.0000
    31 H11          7.7252    56.2422    10.3088 H            1 EST352   0.0000
    32 H12          9.0530    56.5820     9.4210 H            1 EST352   0.0000
    33 H13          8.8559    54.2288     9.9231 H            1 EST352   0.0000
    34 H14          8.9202    54.5245     8.3184 H            1 EST352   0.0000
    35 H15          6.7649    54.5080     7.0876 H            1 EST352   0.0000
    36 H16          4.8467    53.5445     6.6347 H            1 EST352   0.0000
    37 H17          4.3708    53.5351     8.1968 H            1 EST352   0.0000
    38 H18          5.9153    51.5542     6.9562 H            1 EST352   0.0000
    39 H19          5.4616    51.5579     8.5249 H            1 EST352   0.0000
    40 H20          7.8446    52.6912     7.3786 H            1 EST352   0.0000
    41 H21          7.5254    50.7330     9.1013 H            1 EST352   0.0000
    42 H22          5.5768    52.9097    10.0517 H            1 EST352   0.0000
    43 H23          7.0385    52.8340    10.7757 H            1 EST352   0.0000
    44 H24          6.1889    54.2284    10.7953 H            1 EST352   0.0000
@<TRIPOS>BOND
     1    1    2      ar
     2    1   11      ar
     3    2    3      ar
     4    3    4       1
     5    3    5      ar
     6    5    6      ar
     7    6    7       1
     8    6   11      ar
     9    7    8       1
    10    8    9       1
    11    9   10       1
    12    9   15       1
    13   10   11       1
    14   10   12       1
    15   12   13       1
    16   13   14       1
    17   14   15       1
    18   14   18       1
    19   14   20       1
    20   15   16       1
    21   16   17       1
    22   17   18       1
    23   18   19       1
    24    1   21       1
    25    2   22       1
    26    4   23       1
    27    5   24       1
    28    7   25       1
    29    7   26       1
    30    8   27       1
    31    8   28       1
    32    9   29       1
    33   10   30       1
    34   12   31       1
    35   12   32       1
    36   13   33       1
    37   13   34       1
    38   15   35       1
    39   16   36       1
    40   16   37       1
    41   17   38       1
    42   17   39       1
    43   18   40       1
    44   19   41       1
    45   20   42       1
    46   20   43       1
    47   20   44       1
@<TRIPOS>SUBSTRUCTURE
     1 EST352      1 GROUP             4 D     EST     0 **** EST D 352
