@<TRIPOS>MOLECULE
1d0v_RBZ_1_ligand
   42    44     1     0     0
SMALL
NO_CHARGES


@<TRIPOS>ATOM
     1 N3          56.3820    41.5250    14.1250 N.2          1 RBZ990   1.0000
     2 N1          56.7690    40.9080    11.9840 N.pl3        1 RBZ990   0.0000
     3 C2          56.0050    40.7620    13.0850 C.2          1 RBZ990   0.0000
     4 C7A         57.7610    41.8370    12.4060 C.ar         1 RBZ990   0.0000
     5 C3A         57.5060    42.2240    13.7100 C.ar         1 RBZ990   0.0000
     6 C4          58.3130    43.1720    14.3530 C.ar         1 RBZ990   0.0000
     7 C5          59.4140    43.6980    13.6940 C.ar         1 RBZ990   0.0000
     8 C6          59.7000    43.2890    12.3730 C.ar         1 RBZ990   0.0000
     9 C7          58.8810    42.3600    11.7360 C.ar         1 RBZ990   0.0000
    10 C8          60.3030    44.7380    14.3850 C.3          1 RBZ990   0.0000
    11 C9          60.8940    43.8800    11.6410 C.3          1 RBZ990   0.0000
    12 P           59.6100    39.3980     6.0860 P.3          1 RBZ990   0.0000
    13 O1P         59.2730    38.1200     5.3920 O.co2        1 RBZ990   0.0000
    14 O2P         59.8060    40.5630     5.1960 O.co2        1 RBZ990  -1.0000
    15 O3P         60.6100    39.1940     7.1470 O.co2        1 RBZ990  -1.0000
    16 O5'         58.3630    39.7350     7.0530 O.3          1 RBZ990   0.0000
    17 C5'         57.8170    38.7410     7.9720 C.3          1 RBZ990   0.0000
    18 C4'         58.2310    39.0830     9.3880 C.3          1 RBZ990   0.0000
    19 O4'         57.7290    40.3960     9.7960 O.3          1 RBZ990   0.0000
    20 C3'         57.7310    38.1530    10.4610 C.3          1 RBZ990   0.0000
    21 O3'         58.4610    38.2640    11.6750 O.3          1 RBZ990   0.0000
    22 C2'         56.3420    38.7690    10.6490 C.3          1 RBZ990   0.0000
    23 O2'         55.8500    38.3330    11.9300 O.3          1 RBZ990   0.0000
    24 C1'         56.6080    40.2700    10.6480 C.3          1 RBZ990   0.0000
    25 H1          55.2240    40.1388    13.1245 H            1 RBZ990   0.0000
    26 H2          58.0959    43.4680    15.2832 H            1 RBZ990   0.0000
    27 H3          59.0892    42.0653    10.8034 H            1 RBZ990   0.0000
    28 H4          61.0440    45.0052    13.7689 H            1 RBZ990   0.0000
    29 H5          59.7562    45.5424    14.6172 H            1 RBZ990   0.0000
    30 H6          60.6888    44.3449    15.2196 H            1 RBZ990   0.0000
    31 H7          60.9518    43.4850    10.7241 H            1 RBZ990   0.0000
    32 H8          60.7844    44.8715    11.5705 H            1 RBZ990   0.0000
    33 H9          61.7313    43.6723    12.1468 H            1 RBZ990   0.0000
    34 H5'1        58.1678    37.8360     7.7313 H            1 RBZ990   0.0000
    35 H5'2        56.8191    38.7397     7.9074 H            1 RBZ990   0.0000
    36 H4'         59.2300    39.1016     9.4281 H            1 RBZ990   0.0000
    37 H3'         57.6798    37.2069    10.1411 H            1 RBZ990   0.0000
    38 H14         58.0348    38.9555    12.2582 H            1 RBZ990   0.0000
    39 H2'         55.7218    38.5065     9.9098 H            1 RBZ990   0.0000
    40 H16         55.3459    37.4764    11.8195 H            1 RBZ990   0.0000
    41 H1'         55.8342    40.7124    10.1946 H            1 RBZ990   0.0000
    42 H18         55.9400    41.5783    15.0204 H            1 RBZ990   0.0000
@<TRIPOS>BOND
     1    1    3       2
     2    1    5       1
     3    2    3       1
     4    2    4       1
     5    2   24       1
     6    4    5      ar
     7    4    9      ar
     8    5    6      ar
     9    6    7      ar
    10    7    8      ar
    11    7   10       1
    12    8    9      ar
    13    8   11       1
    14   12   13      ar
    15   12   14      ar
    16   12   15      ar
    17   12   16       1
    18   16   17       1
    19   17   18       1
    20   18   19       1
    21   18   20       1
    22   19   24       1
    23   20   21       1
    24   20   22       1
    25   22   23       1
    26   22   24       1
    27    3   25       1
    28    6   26       1
    29    9   27       1
    30   10   28       1
    31   10   29       1
    32   10   30       1
    33   11   31       1
    34   11   32       1
    35   11   33       1
    36   24   41       1
    37   23   40       1
    38   17   34       1
    39   17   35       1
    40   18   36       1
    41   20   37       1
    42   21   38       1
    43   22   39       1
    44    1   42       1
@<TRIPOS>SUBSTRUCTURE
     1 RBZ990      1 GROUP             4 A     RBZ     0 **** RBZ A 990
