@<TRIPOS>MOLECULE
2e9n_76A_1_ligand
   62    67     1     0     0
SMALL
NO_CHARGES


@<TRIPOS>ATOM
     1 O1         -13.4960     9.4900   -13.8670 O.3          1 76A1001   0.0000
     2 C2          -9.6580     9.3950   -16.0270 C.ar         1 76A1001   0.0000
     3 C3         -10.3360     8.1260   -15.6120 C.ar         1 76A1001   0.0000
     4 C4         -11.6250     8.1580   -14.8870 C.ar         1 76A1001   0.0000
     5 C5         -12.2860     9.4560   -14.5480 C.ar         1 76A1001   0.0000
     6 C6         -11.6410    10.7100   -14.9420 C.ar         1 76A1001   0.0000
     7 C7         -10.3660    10.6880   -15.6600 C.ar         1 76A1001   0.0000
     8 C8          -5.7140     9.6140   -18.3310 C.ar         1 76A1001   0.0000
     9 C9          -6.1180     8.3060   -17.6850 C.ar         1 76A1001   0.0000
    10 C10         -7.3940     8.2220   -16.9350 C.ar         1 76A1001   0.0000
    11 C11         -8.2980     9.4160   -16.8020 C.ar         1 76A1001   0.0000
    12 C12         -7.8550    10.6720   -17.4560 C.ar         1 76A1001   0.0000
    13 C13         -6.6180    10.7760   -18.1890 C.ar         1 76A1001   0.0000
    14 C14         -4.4200     9.8530   -19.1240 C.2          1 76A1001   0.0000
    15 N15         -4.2420    10.5910   -20.2580 N.pl3        1 76A1001   0.0000
    16 N16         -2.9630    10.6280   -20.7230 N.pl3        1 76A1001   0.0000
    17 C17         -2.2310     9.8610   -19.8500 C.2          1 76A1001   0.0000
    18 C18         -3.1120     9.3620   -18.8240 C.2          1 76A1001   0.0000
    19 C19         -0.9270     9.4350   -19.6310 C.2          1 76A1001   0.0000
    20 C20         -0.9940     8.6030   -18.3890 C.2          1 76A1001   0.0000
    21 C21         -2.3500     8.5850   -17.9410 C.2          1 76A1001   0.0000
    22 C22          0.3570     9.6330   -20.3260 C.2          1 76A1001   0.0000
    23 C23          1.6120     8.9950   -19.7760 C.2          1 76A1001   0.0000
    24 C24          1.5530     8.1490   -18.5110 C.2          1 76A1001   0.0000
    25 C25          0.2170     7.9750   -17.8480 C.2          1 76A1001   0.0000
    26 C26          2.7020     7.5290   -17.9170 C.2          1 76A1001   0.0000
    27 N27          3.5980     6.8640   -18.7560 N.am         1 76A1001   0.0000
    28 O28          2.9080     7.5990   -16.6860 O.2          1 76A1001   0.0000
    29 C29          4.8400     6.2040   -18.2460 C.3          1 76A1001   0.0000
    30 C30          4.9170     4.6690   -18.5860 C.3          1 76A1001   0.0000
    31 C31          6.2470     3.9840   -18.0630 C.3          1 76A1001   0.0000
    32 C32          7.6020     4.7180   -18.4660 C.3          1 76A1001   0.0000
    33 C33          7.4890     6.3300   -18.2950 C.3          1 76A1001   0.0000
    34 C34          6.1300     6.9430   -18.8160 C.3          1 76A1001   0.0000
    35 O35          8.6830     4.2490   -17.5860 O.3          1 76A1001   0.0000
    36 H1         -13.9405     8.6367   -13.5945 H            1 76A1001   0.0000
    37 H2          -9.9123     7.2462   -15.8276 H            1 76A1001   0.0000
    38 H3         -12.0610     7.2987   -14.6195 H            1 76A1001   0.0000
    39 H4         -12.0730    11.5841   -14.7198 H            1 76A1001   0.0000
    40 H5          -9.9448    11.5572   -15.9189 H            1 76A1001   0.0000
    41 H6          -5.5274     7.5029   -17.7637 H            1 76A1001   0.0000
    42 H7          -7.6581     7.3561   -16.5101 H            1 76A1001   0.0000
    43 H8          -8.4392    11.4805   -17.3853 H            1 76A1001   0.0000
    44 H9          -6.3669    11.6484   -18.6085 H            1 76A1001   0.0000
    45 H10         -4.9939    11.0683   -20.7128 H            1 76A1001   0.0000
    46 H11         -2.6270    11.1122   -21.5309 H            1 76A1001   0.0000
    47 H12         -2.6958     8.1017   -17.1367 H            1 76A1001   0.0000
    48 H13          0.3980    10.1868   -21.1576 H            1 76A1001   0.0000
    49 H14          2.4850     9.1290   -20.2449 H            1 76A1001   0.0000
    50 H15          0.1510     7.4189   -17.0195 H            1 76A1001   0.0000
    51 H16          3.4020     6.8274   -19.7359 H            1 76A1001   0.0000
    52 H17          4.8491     6.2974   -17.2504 H            1 76A1001   0.0000
    53 H18          4.8718     4.5601   -19.5790 H            1 76A1001   0.0000
    54 H19          4.1351     4.2098   -18.1644 H            1 76A1001   0.0000
    55 H20          6.2795     3.0544   -18.4301 H            1 76A1001   0.0000
    56 H21          6.2021     3.9468   -17.0647 H            1 76A1001   0.0000
    57 H22          7.8283     4.4998   -19.4153 H            1 76A1001   0.0000
    58 H23          8.2390     6.7526   -18.8038 H            1 76A1001   0.0000
    59 H24          7.5799     6.5494   -17.3236 H            1 76A1001   0.0000
    60 H25          6.0909     7.9041   -18.5426 H            1 76A1001   0.0000
    61 H26          6.1161     6.8795   -19.8139 H            1 76A1001   0.0000
    62 H27          9.5526     4.2842   -18.0784 H            1 76A1001   0.0000
@<TRIPOS>BOND
     1    1    5       1
     2    2    3      ar
     3    2    7      ar
     4    2   11       1
     5    3    4      ar
     6    4    5      ar
     7    5    6      ar
     8    6    7      ar
     9    8    9      ar
    10    8   13      ar
    11    8   14       1
    12    9   10      ar
    13   10   11      ar
    14   11   12      ar
    15   12   13      ar
    16   14   15       1
    17   14   18       2
    18   15   16       1
    19   16   17       1
    20   17   18       1
    21   17   19       2
    22   18   21       1
    23   19   20       1
    24   19   22       1
    25   20   21       2
    26   20   25       1
    27   22   23       2
    28   23   24       1
    29   24   25       2
    30   24   26       1
    31   26   27      am
    32   26   28       2
    33   27   29       1
    34   29   30       1
    35   29   34       1
    36   30   31       1
    37   31   32       1
    38   32   33       1
    39   32   35       1
    40   33   34       1
    41    1   36       1
    42    3   37       1
    43    4   38       1
    44    6   39       1
    45    7   40       1
    46    9   41       1
    47   10   42       1
    48   12   43       1
    49   13   44       1
    50   15   45       1
    51   16   46       1
    52   21   47       1
    53   22   48       1
    54   23   49       1
    55   25   50       1
    56   27   51       1
    57   29   52       1
    58   30   53       1
    59   30   54       1
    60   31   55       1
    61   31   56       1
    62   32   57       1
    63   33   58       1
    64   33   59       1
    65   34   60       1
    66   34   61       1
    67   35   62       1
@<TRIPOS>SUBSTRUCTURE
     1 76A1001     1 GROUP             4 A     76A     0 **** 76A A1001
