### 
### Created by X-TOOL on Mon Sep 10 21:12:55 2018
### 

@<TRIPOS>MOLECULE
2gsu_ligand
   35    37     1     0     0
SMALL
GAST_HUCK


@<TRIPOS>ATOM
      1 P          29.5860   43.9380   22.7300 P.3       1 AMP         0.2008
      2 O1P        28.3430   44.7100   23.0700 O.co2     1 AMP        -0.5537
      3 O2P        29.8250   42.6930   23.5730 O.co2     1 AMP        -0.5537
      4 O3P        30.7940   44.7930   22.5040 O.co2     1 AMP        -0.5537
      5 O5         29.2740   43.4120   21.2330 O.3       1 AMP        -0.2734
      6 C5         27.9430   43.1350   20.7540 C.3       1 AMP         0.1072
      7 C4         27.5620   44.0160   19.5540 C.3       1 AMP         0.1182
      8 O4         27.1770   43.2010   18.4360 O.3       1 AMP        -0.3365
      9 C3         26.3930   44.9470   19.8320 C.3       1 AMP         0.1149
     10 O3         26.8460   46.3080   19.9420 O.3       1 AMP        -0.3864
     11 C2         25.4030   44.7610   18.6890 C.3       1 AMP         0.1385
     12 O2         25.2850   45.9640   17.9180 O.3       1 AMP        -0.3836
     13 C1         25.9170   43.5790   17.8560 C.3       1 AMP         0.2010
     14 N9         24.9970   42.3930   17.8350 N.pl3     1 AMP        -0.1919
     15 C8         23.9770   42.1770   18.6850 C.2       1 AMP         0.1123
     16 N7         23.3240   41.0220   18.4250 N.2       1 AMP        -0.2958
     17 C5         23.9220   40.4530   17.3840 C.ar      1 AMP         0.1045
     18 C6         23.7040   39.2090   16.6220 C.ar      1 AMP         0.1298
     19 N6         22.6940   38.3710   16.9670 N.pl3     1 AMP        -0.3152
     20 N1         24.5400   38.9570   15.5870 N.ar      1 AMP        -0.2698
     21 C2         25.5310   39.8090   15.2560 C.ar      1 AMP         0.0533
     22 N3         25.7730   40.9590   15.9250 N.ar      1 AMP        -0.2714
     23 C4         25.0230   41.3460   16.9900 C.ar      1 AMP         0.1613
     24 H1         27.2278   43.3187   21.5693 H         1 AMP         0.0639
     25 H2         27.8887   42.0794   20.4496 H         1 AMP         0.0639
     26 H3         28.4400   44.6202   19.2820 H         1 AMP         0.0650
     27 H4         25.9115   44.6617   20.7790 H         1 AMP         0.0648
     28 H5         27.2617   46.5689   19.1286 H         1 AMP         0.2100
     29 H6         24.4122   44.5123   19.0970 H         1 AMP         0.0676
     30 H7         24.9795   46.6686   18.4773 H         1 AMP         0.2101
     31 H8         26.0690   43.9139   16.8193 H         1 AMP         0.0996
     32 H9         23.7074   42.8564   19.4922 H         1 AMP         0.1349
     33 H10        22.5413   37.5022   16.4353 H         1 AMP         0.1820
     34 H11        22.0801   38.6037   17.7606 H         1 AMP         0.1820
     35 H12        26.1647   39.5601   14.4125 H         1 AMP         0.0996
@<TRIPOS>BOND
     1    1    2 ar 
     2    1    3 ar 
     3    1    4 ar 
     4    1    5 1  
     5    5    6 1  
     6    6    7 1  
     7    7    8 1  
     8    7    9 1  
     9    8   13 1  
    10    9   10 1  
    11    9   11 1  
    12   11   12 1  
    13   11   13 1  
    14   13   14 1  
    15   14   15 1  
    16   14   23 1  
    17   15   16 2  
    18   16   17 1  
    19   17   18 ar 
    20   17   23 ar 
    21   18   19 1  
    22   18   20 ar 
    23   20   21 ar 
    24   21   22 ar 
    25   22   23 ar 
    26    6   24 1  
    27    6   25 1  
    28    7   26 1  
    29    9   27 1  
    30   10   28 1  
    31   11   29 1  
    32   12   30 1  
    33   13   31 1  
    34   15   32 1  
    35   19   33 1  
    36   19   34 1  
    37   21   35 1  
@<TRIPOS>SUBSTRUCTURE
     1 AMP         1

