@<TRIPOS>MOLECULE
1fdu_NAP_5_ligand
   73    77     1     0     0
SMALL
NO_CHARGES


@<TRIPOS>ATOM
     1 PA          13.6670     6.1580    54.9570 P.3          1 NAP361   0.0000
     2 O1A         14.2760     7.5260    55.0360 O.co2        1 NAP361   0.0000
     3 O2A         12.2500     5.9710    55.0510 O.co2        1 NAP361  -1.0000
     4 O5B         14.3490     5.2340    56.1170 O.3          1 NAP361   0.0000
     5 C5B         15.1080     5.9710    57.1410 C.3          1 NAP361   0.0000
     6 C4B         14.7310     5.6040    58.5450 C.3          1 NAP361   0.0000
     7 O4B         15.9190     5.4720    59.3520 O.3          1 NAP361   0.0000
     8 C3B         13.9650     6.7180    59.2610 C.3          1 NAP361   0.0000
     9 O3B         13.1400     6.1850    60.3300 O.3          1 NAP361   0.0000
    10 C2B         15.1020     7.5830    59.7600 C.3          1 NAP361   0.0000
    11 O2B         14.7330     8.3790    60.8790 O.3          1 NAP361   0.0000
    12 C1B         16.0600     6.4670    60.2950 C.3          1 NAP361   0.0000
    13 N9A         17.3020     7.0930    60.7700 N.pl3        1 NAP361   0.0000
    14 C8A         17.9900     8.0890    60.1750 C.2          1 NAP361   0.0000
    15 N7A         18.9930     8.4790    60.9580 N.2          1 NAP361   0.0000
    16 C5A         18.9400     7.7690    62.0650 C.ar         1 NAP361   0.0000
    17 C6A         19.6920     7.7310    63.2510 C.ar         1 NAP361   0.0000
    18 N6A         20.7610     8.5180    63.4220 N.pl3        1 NAP361   0.0000
    19 N1A         19.3750     6.8730    64.2450 N.ar         1 NAP361   0.0000
    20 C2A         18.3170     6.0470    64.0990 C.ar         1 NAP361   0.0000
    21 N3A         17.5850     6.0750    62.9830 N.ar         1 NAP361   0.0000
    22 C4A         17.8690     6.9000    61.9640 C.ar         1 NAP361   0.0000
    23 O3          14.2560     5.5310    53.6200 O.3          1 NAP361   0.0000
    24 PN          14.6540     3.9870    53.4100 P.3          1 NAP361   0.0000
    25 O1N         14.9030     3.8030    51.9790 O.co2        1 NAP361   0.0000
    26 O2N         13.7330     3.1870    54.2600 O.co2        1 NAP361  -1.0000
    27 O5D         16.0610     3.8690    54.2390 O.3          1 NAP361   0.0000
    28 C5D         16.3490     2.5980    54.8870 C.3          1 NAP361   0.0000
    29 C4D         17.6920     2.0220    54.5770 C.3          1 NAP361   0.0000
    30 O4D         17.7720     1.2620    53.3730 O.3          1 NAP361   0.0000
    31 C3D         18.9120     2.9360    54.4510 C.3          1 NAP361   0.0000
    32 O3D         20.0470     2.1170    54.7860 O.3          1 NAP361   0.0000
    33 C2D         18.9650     3.1930    52.9430 C.3          1 NAP361   0.0000
    34 O2D         20.3240     3.4840    52.5360 O.3          1 NAP361   0.0000
    35 C1D         18.6240     1.8020    52.4240 C.3          1 NAP361   0.0000
    36 N1N         18.3720     1.8160    50.9910 N.ar         1 NAP361   1.0000
    37 C2N         17.2590     2.5070    50.4740 C.ar         1 NAP361   0.0000
    38 C3N         17.0470     2.6330    49.0850 C.ar         1 NAP361   0.0000
    39 C7N         15.9200     3.5140    48.5500 C.2          1 NAP361   0.0000
    40 O7N         15.8350     3.7520    47.3600 O.2          1 NAP361   0.0000
    41 N7N         15.0950     4.1660    49.3820 N.am         1 NAP361   0.0000
    42 C4N         17.9060     1.9400    48.2440 C.ar         1 NAP361   0.0000
    43 C5N         18.9260     1.1310    48.7250 C.ar         1 NAP361   0.0000
    44 C6N         19.2010     1.1140    50.0940 C.ar         1 NAP361   0.0000
    45 P2B         13.9960     9.5760    60.7450 P.3          1 NAP361   0.0000
    46 O1X         14.7490    10.3650    59.8180 O.co2        1 NAP361   0.0000
    47 O2X         12.6830     9.3760    60.1660 O.co2        1 NAP361  -1.0000
    48 O3X         13.7040    10.1300    62.0370 O.co2        1 NAP361  -1.0000
    49 H5B1        14.9429     6.9491    57.0144 H            1 NAP361   0.0000
    50 H5B2        16.0809     5.7779    57.0138 H            1 NAP361   0.0000
    51 H4B         14.2042     4.7541    58.5554 H            1 NAP361   0.0000
    52 H3B         13.4024     7.2265    58.6092 H            1 NAP361   0.0000
    53 H5          12.3341     6.7648    60.4498 H            1 NAP361   0.0000
    54 H2B         15.5182     8.1236    59.0289 H            1 NAP361   0.0000
    55 H1B         15.6149     6.1126    61.1174 H            1 NAP361   0.0000
    56 H8A         17.7778     8.4770    59.2781 H            1 NAP361   0.0000
    57 H6A1        21.2824     8.4750    64.2743 H            1 NAP361   0.0000
    58 H6A2        21.0384     9.1490    62.6975 H            1 NAP361   0.0000
    59 H2A         18.0800     5.4096    64.8322 H            1 NAP361   0.0000
    60 H5D1        15.6546     1.9385    54.5991 H            1 NAP361   0.0000
    61 H5D2        16.2903     2.7336    55.8760 H            1 NAP361   0.0000
    62 H4D         17.8985     1.3856    55.3202 H            1 NAP361   0.0000
    63 H3D         18.8452     3.7708    54.9975 H            1 NAP361   0.0000
    64 H16         19.9454     1.7721    55.7191 H            1 NAP361   0.0000
    65 H2D         18.3126     3.8896    52.6446 H            1 NAP361   0.0000
    66 H18         20.4855     4.4692    52.5935 H            1 NAP361   0.0000
    67 H1D         19.4724     1.2822    52.5242 H            1 NAP361   0.0000
    68 H2N         16.6031     2.9183    51.1069 H            1 NAP361   0.0000
    69 H7N1        14.3627     4.7384    49.0131 H            1 NAP361   0.0000
    70 H7N2        15.2121     4.0799    50.3714 H            1 NAP361   0.0000
    71 H4N         17.7857     2.0267    47.2550 H            1 NAP361   0.0000
    72 H5N         19.4595     0.5650    48.0965 H            1 NAP361   0.0000
    73 H6N         19.9882     0.6024    50.4384 H            1 NAP361   0.0000
@<TRIPOS>BOND
     1    1    2      ar
     2    1    3      ar
     3    1    4       1
     4    1   23       1
     5    4    5       1
     6    5    6       1
     7    6    7       1
     8    6    8       1
     9    7   12       1
    10    8    9       1
    11    8   10       1
    12   10   11       1
    13   10   12       1
    14   11   45       1
    15   12   13       1
    16   13   14       1
    17   13   22       1
    18   14   15       2
    19   15   16       1
    20   16   17      ar
    21   16   22      ar
    22   17   18       1
    23   17   19      ar
    24   19   20      ar
    25   20   21      ar
    26   21   22      ar
    27   23   24       1
    28   24   25      ar
    29   24   26      ar
    30   24   27       1
    31   27   28       1
    32   28   29       1
    33   29   30       1
    34   29   31       1
    35   30   35       1
    36   31   32       1
    37   31   33       1
    38   33   34       1
    39   33   35       1
    40   35   36       1
    41   36   37      ar
    42   36   44      ar
    43   37   38      ar
    44   38   39       1
    45   38   42      ar
    46   39   40       2
    47   39   41      am
    48   42   43      ar
    49   43   44      ar
    50   45   46      ar
    51   45   47      ar
    52   45   48      ar
    53   43   72       1
    54    5   49       1
    55    5   50       1
    56    6   51       1
    57    8   52       1
    58    9   53       1
    59   10   54       1
    60   12   55       1
    61   14   56       1
    62   18   57       1
    63   18   58       1
    64   20   59       1
    65   44   73       1
    66   28   60       1
    67   28   61       1
    68   29   62       1
    69   31   63       1
    70   32   64       1
    71   33   65       1
    72   34   66       1
    73   35   67       1
    74   37   68       1
    75   41   69       1
    76   41   70       1
    77   42   71       1
@<TRIPOS>SUBSTRUCTURE
     1 NAP361      1 GROUP             4 A     NAP     0 **** NAP A 361
