@<TRIPOS>MOLECULE
2x7s_WZC_2_ligand
   53    56     1     0     0
SMALL
NO_CHARGES


@<TRIPOS>ATOM
     1 OAD         20.1350    33.2220    15.1030 O.2          1 WZC1264   0.0000
     2 SAZ         20.0610    34.5840    15.6730 S.o2         1 WZC1264   0.0000
     3 OAE         21.4410    35.0610    15.9030 O.2          1 WZC1264   0.0000
     4 NAC         19.4460    35.5590    14.6930 N.3          1 WZC1264   0.0000
     5 OAP         19.2710    34.5690    16.9920 O.3          1 WZC1264   0.0000
     6 CAV         18.8690    35.8060    17.5720 C.3          1 WZC1264   0.0000
     7 CAK         17.3440    35.9650    17.5170 C.3          1 WZC1264   0.0000
     8 CAM         16.9290    36.6660    18.8100 C.3          1 WZC1264   0.0000
     9 CAX         18.2740    37.0540    19.4230 C.3          1 WZC1264   0.0000
    10 CAJ         17.3720    38.6400    21.1430 C.3          1 WZC1264   0.0000
    11 CAI         17.5660    39.4180    22.4510 C.3          1 WZC1264   0.0000
    12 CAR         18.9030    39.2110    23.1350 C.ar         1 WZC1264   0.0000
    13 CAG         19.0690    39.7190    24.4240 C.ar         1 WZC1264   0.0000
    14 CAQ         20.2830    39.5520    25.0870 C.ar         1 WZC1264   0.0000
    15 OAF         20.4440    40.0490    26.3470 O.3          1 WZC1264   0.0000
    16 CAS         21.3290    38.8810    24.4730 C.ar         1 WZC1264   0.0000
    17 OAO         22.5110    38.7370    25.1530 O.3          1 WZC1264   0.0000
    18 CAA         23.6050    37.9810    24.6350 C.3          1 WZC1264   0.0000
    19 CAH         21.1640    38.3710    23.1830 C.ar         1 WZC1264   0.0000
    20 CAT         19.9480    38.5290    22.5150 C.ar         1 WZC1264   0.0000
    21 CAU         19.7690    38.0060    21.1300 C.3          1 WZC1264   0.0000
    22 CAL         20.8480    36.9890    20.7260 C.3          1 WZC1264   0.0000
    23 CAN         20.6690    36.5450    19.2680 C.3          1 WZC1264   0.0000
    24 CAB         19.1000    34.6500    19.7990 C.3          1 WZC1264   0.0000
    25 CAY         19.2750    35.9720    19.0290 C.3          1 WZC1264   0.0000
    26 CAW         18.3480    37.4950    20.8900 C.3          1 WZC1264   0.0000
    27 HAC1        19.6524    35.2676    13.7589 H            1 WZC1264   0.0000
    28 HAC2        18.4548    35.5823    14.8236 H            1 WZC1264   0.0000
    29 HAV         19.2814    36.5488    17.0446 H            1 WZC1264   0.0000
    30 HAK1        16.9059    35.0682    17.4552 H            1 WZC1264   0.0000
    31 HAK2        17.0835    36.5185    16.7259 H            1 WZC1264   0.0000
    32 HAM1        16.4235    36.0465    19.4106 H            1 WZC1264   0.0000
    33 HAM2        16.3719    37.4744    18.6199 H            1 WZC1264   0.0000
    34 HAX         18.5610    37.8600    18.9053 H            1 WZC1264   0.0000
    35 HAJ1        17.4592    39.2882    20.3865 H            1 WZC1264   0.0000
    36 HAJ2        16.4480    38.2576    21.1495 H            1 WZC1264   0.0000
    37 HAI1        16.8469    39.1377    23.0869 H            1 WZC1264   0.0000
    38 HAI2        17.4703    40.3925    22.2481 H            1 WZC1264   0.0000
    39 HAG         18.3170    40.2027    24.8717 H            1 WZC1264   0.0000
    40 HAF         21.3148    39.9299    26.8240 H            1 WZC1264   0.0000
    41 HAA1        24.3641    38.0046    25.2855 H            1 WZC1264   0.0000
    42 HAA2        23.3177    37.0339    24.4922 H            1 WZC1264   0.0000
    43 HAA3        23.8998    38.3748    23.7644 H            1 WZC1264   0.0000
    44 HAH         21.9192    37.8912    22.7365 H            1 WZC1264   0.0000
    45 HAU         19.8870    38.7904    20.5211 H            1 WZC1264   0.0000
    46 HAL1        20.7820    36.1886    21.3218 H            1 WZC1264   0.0000
    47 HAL2        21.7492    37.4095    20.8312 H            1 WZC1264   0.0000
    48 HAN1        21.3499    35.8443    19.0551 H            1 WZC1264   0.0000
    49 HAN2        20.8039    37.3339    18.6685 H            1 WZC1264   0.0000
    50 HAB1        19.3719    34.7810    20.7524 H            1 WZC1264   0.0000
    51 HAB2        18.1417    34.3668    19.7616 H            1 WZC1264   0.0000
    52 HAB3        19.6728    33.9437    19.3831 H            1 WZC1264   0.0000
    53 HAW         18.1472    36.7253    21.4960 H            1 WZC1264   0.0000
@<TRIPOS>BOND
     1    1    2       2
     2    2    3       2
     3    2    4       1
     4    2    5       1
     5    5    6       1
     6    6    7       1
     7    6   25       1
     8    7    8       1
     9    8    9       1
    10    9   25       1
    11    9   26       1
    12   10   11       1
    13   10   26       1
    14   11   12       1
    15   12   13      ar
    16   12   20      ar
    17   13   14      ar
    18   14   15       1
    19   14   16      ar
    20   16   17       1
    21   16   19      ar
    22   17   18       1
    23   19   20      ar
    24   20   21       1
    25   21   22       1
    26   21   26       1
    27   22   23       1
    28   23   25       1
    29   24   25       1
    30    4   27       1
    31    4   28       1
    32    6   29       1
    33    7   30       1
    34    7   31       1
    35    8   32       1
    36    8   33       1
    37    9   34       1
    38   10   35       1
    39   10   36       1
    40   11   37       1
    41   11   38       1
    42   13   39       1
    43   15   40       1
    44   18   41       1
    45   18   42       1
    46   18   43       1
    47   19   44       1
    48   21   45       1
    49   22   46       1
    50   22   47       1
    51   23   48       1
    52   23   49       1
    53   24   50       1
    54   24   51       1
    55   24   52       1
    56   26   53       1
@<TRIPOS>SUBSTRUCTURE
     1 WZC1264     1 GROUP             4 A     WZC     0 **** WZC A1264
