@<TRIPOS>MOLECULE
4ear_IM5_3_ligand
   38    40     1     0     0
SMALL
NO_CHARGES


@<TRIPOS>ATOM
     1 N1         -15.2780     3.8540   -31.7870 N.pl3        1 IM5301   0.0000
     2 C2         -14.3070     4.5630   -32.5160 C.2          1 IM5301   0.0000
     3 N2         -14.2100     5.8740   -32.3620 N.pl3        1 IM5301   0.0000
     4 N3         -13.5150     3.9010   -33.3870 N.2          1 IM5301   0.0000
     5 C4         -13.6650     2.5780   -33.5360 C.2          1 IM5301   0.0000
     6 C5         -14.5760     1.8720   -32.7970 C.2          1 IM5301   0.0000
     7 C6         -15.4080     2.5050   -31.9260 C.2          1 IM5301   0.0000
     8 O6         -16.2690     1.9220   -31.2120 O.2          1 IM5301   0.0000
     9 N7         -14.4670     0.5990   -33.1720 N.pl3        1 IM5301   0.0000
    10 C8         -13.5210     0.5000   -34.1170 C.2          1 IM5301   0.0000
    11 C9         -13.0120     1.7110   -34.3160 C.2          1 IM5301   0.0000
    12 N1'        -10.4830     2.1170   -34.8900 N.4          1 IM5301   1.0000
    13 C10        -11.9220     2.0020   -35.3410 C.3          1 IM5301   0.0000
    14 C2'        -10.2480     3.1800   -33.9380 C.3          1 IM5301   0.0000
    15 C3'         -8.7960     2.7760   -33.5340 C.3          1 IM5301   0.0000
    16 O3'         -7.8540     3.2220   -34.5580 O.3          1 IM5301   0.0000
    17 C4'         -8.8670     1.2630   -33.4100 C.3          1 IM5301   0.0000
    18 C5'         -8.9800     0.9220   -31.9480 C.3          1 IM5301   0.0000
    19 O5'         -9.5430    -0.3760   -31.7880 O.3          1 IM5301   0.0000
    20 C6'        -10.1040     0.8690   -34.2240 C.3          1 IM5301   0.0000
    21 H1         -15.8806     4.3460   -31.1587 H            1 IM5301   0.0000
    22 H2         -13.5230     6.3883   -32.8754 H            1 IM5301   0.0000
    23 H3         -14.8237     6.3502   -31.7322 H            1 IM5301   0.0000
    24 H4         -15.0045    -0.1613   -32.8073 H            1 IM5301   0.0000
    25 H5         -13.2468    -0.3379   -34.5890 H            1 IM5301   0.0000
    26 H6         -12.1592     2.8692   -35.7787 H            1 IM5301   0.0000
    27 H7         -11.9562     1.2667   -36.0178 H            1 IM5301   0.0000
    28 H2'1       -10.8816     3.1455   -33.1651 H            1 IM5301   0.0000
    29 H2'2       -10.2873     4.0852   -34.3611 H            1 IM5301   0.0000
    30 H3'         -8.5602     3.1818   -32.6510 H            1 IM5301   0.0000
    31 H11         -7.7418     2.5028   -35.2436 H            1 IM5301   0.0000
    32 H4'         -8.0473     0.8445   -33.8010 H            1 IM5301   0.0000
    33 H5'1        -9.5664     1.5944   -31.4963 H            1 IM5301   0.0000
    34 H5'2        -8.0703     0.9409   -31.5331 H            1 IM5301   0.0000
    35 H5'         -9.6130    -0.5912   -30.8139 H            1 IM5301   0.0000
    36 H6'1        -9.8813     0.1597   -34.8928 H            1 IM5301   0.0000
    37 H6'2       -10.8375     0.5452   -33.6264 H            1 IM5301   0.0000
    38 H1'         -9.8975     2.2550   -35.6889 H            1 IM5301   0.0000
@<TRIPOS>BOND
     1    1    2       1
     2    1    7       1
     3    2    3       1
     4    2    4       2
     5    4    5       1
     6    5    6       2
     7    5   11       1
     8    6    7       1
     9    6    9       1
    10    7    8       2
    11    9   10       1
    12   10   11       2
    13   11   13       1
    14   12   13       1
    15   12   14       1
    16   12   20       1
    17   14   15       1
    18   15   16       1
    19   15   17       1
    20   17   18       1
    21   17   20       1
    22   18   19       1
    23    1   21       1
    24    3   22       1
    25    3   23       1
    26    9   24       1
    27   10   25       1
    28   13   26       1
    29   13   27       1
    30   14   28       1
    31   14   29       1
    32   15   30       1
    33   16   31       1
    34   17   32       1
    35   18   33       1
    36   18   34       1
    37   19   35       1
    38   20   36       1
    39   20   37       1
    40   12   38       1
@<TRIPOS>SUBSTRUCTURE
     1 IM5301      1 GROUP             4 C     IM5     0 **** IM5 C 301
