@<TRIPOS>MOLECULE
1n2g_APC_2_ligand
   45    47     1     0     0
SMALL
NO_CHARGES


@<TRIPOS>ATOM
     1 PG          21.4650     8.5110    78.0250 P.3          1 APC802   0.0000
     2 O1G         22.5320     9.6280    77.9120 O.co2        1 APC802   0.0000
     3 O2G         21.7440     7.3680    76.9850 O.co2        1 APC802  -1.0000
     4 O3G         21.4370     7.9160    79.4770 O.co2        1 APC802  -1.0000
     5 PB          19.3080    10.5290    77.9820 P.3          1 APC802   0.0000
     6 O1B         18.4310    10.2460    79.2310 O.co2        1 APC802   0.0000
     7 O2B         20.2530    11.6880    78.3100 O.co2        1 APC802  -1.0000
     8 O3B         20.0640     9.1430    77.6440 O.3          1 APC802   0.0000
     9 PA          19.2730    11.4450    75.5060 P.3          1 APC802   0.0000
    10 O1A         18.7670    10.9350    74.2590 O.co2        1 APC802   0.0000
    11 O2A         20.6880    11.1950    75.6760 O.co2        1 APC802  -1.0000
    12 C3A         18.4680    10.8840    76.7360 C.3          1 APC802   0.0000
    13 O5'         19.0010    13.1120    75.3460 O.3          1 APC802   0.0000
    14 C5'         17.7570    13.6720    74.8510 C.3          1 APC802   0.0000
    15 C4'         17.3650    15.0700    75.4440 C.3          1 APC802   0.0000
    16 O4'         16.7000    14.8940    76.7370 O.3          1 APC802   0.0000
    17 C3'         18.5700    16.0170    75.7370 C.3          1 APC802   0.0000
    18 O3'         18.1940    17.4160    75.4730 O.3          1 APC802   0.0000
    19 C2'         18.8270    15.7720    77.1720 C.3          1 APC802   0.0000
    20 O2'         19.6530    16.7690    77.7660 O.3          1 APC802   0.0000
    21 C1'         17.3950    15.6820    77.7150 C.3          1 APC802   0.0000
    22 N9          17.4050    15.0430    79.0370 N.pl3        1 APC802   0.0000
    23 C8          17.8560    13.8090    79.4140 C.2          1 APC802   0.0000
    24 N7          17.7560    13.5000    80.6710 N.2          1 APC802   0.0000
    25 C5          17.1740    14.6430    81.2030 C.ar         1 APC802   0.0000
    26 C6          16.7880    15.0010    82.5200 C.ar         1 APC802   0.0000
    27 N6          16.9580    14.1830    83.5650 N.pl3        1 APC802   0.0000
    28 N1          16.2110    16.2600    82.7170 N.ar         1 APC802   0.0000
    29 C2          16.0340    17.1170    81.6490 C.ar         1 APC802   0.0000
    30 N3          16.3810    16.8630    80.3550 N.ar         1 APC802   0.0000
    31 C4          16.9490    15.5980    80.2050 C.ar         1 APC802   0.0000
    32 H3A1        17.7970    11.5751    77.0048 H            1 APC802   0.0000
    33 H3A2        17.9928    10.0555    76.4398 H            1 APC802   0.0000
    34 H5'1        17.0221    13.0288    75.0659 H            1 APC802   0.0000
    35 H5'2        17.8356    13.7689    73.8588 H            1 APC802   0.0000
    36 H4'         16.7370    15.5269    74.8140 H            1 APC802   0.0000
    37 H3'         19.3640    15.7564    75.1878 H            1 APC802   0.0000
    38 H7          17.5044    17.4450    74.7494 H            1 APC802   0.0000
    39 H2'         19.2693    14.8810    77.2747 H            1 APC802   0.0000
    40 H9          20.4832    16.3431    78.1256 H            1 APC802   0.0000
    41 H1'         16.9901    16.5944    77.7751 H            1 APC802   0.0000
    42 H11         18.2464    13.1714    78.7499 H            1 APC802   0.0000
    43 H12         16.6723    14.4728    84.4785 H            1 APC802   0.0000
    44 H13         17.3707    13.2818    83.4326 H            1 APC802   0.0000
    45 H14         15.6136    18.0036    81.8418 H            1 APC802   0.0000
@<TRIPOS>BOND
     1    1    2      ar
     2    1    3      ar
     3    1    4      ar
     4    1    8       1
     5    5    6      ar
     6    5    7      ar
     7    5    8       1
     8    5   12       1
     9    9   10      ar
    10    9   11      ar
    11    9   12       1
    12    9   13       1
    13   13   14       1
    14   14   15       1
    15   15   16       1
    16   15   17       1
    17   16   21       1
    18   17   18       1
    19   17   19       1
    20   19   20       1
    21   19   21       1
    22   21   22       1
    23   22   23       1
    24   22   31       1
    25   23   24       2
    26   24   25       1
    27   25   26      ar
    28   25   31      ar
    29   26   27       1
    30   26   28      ar
    31   28   29      ar
    32   29   30      ar
    33   30   31      ar
    34   29   45       1
    35   27   44       1
    36   27   43       1
    37   23   42       1
    38   12   32       1
    39   12   33       1
    40   14   34       1
    41   14   35       1
    42   15   36       1
    43   17   37       1
    44   18   38       1
    45   19   39       1
    46   20   40       1
    47   21   41       1
@<TRIPOS>SUBSTRUCTURE
     1 APC802      1 GROUP             4 B     APC     0 **** APC B 802
