@<TRIPOS>MOLECULE
3apy_FAD_3_ligand
   84    89     1     0     0
SMALL
NO_CHARGES


@<TRIPOS>ATOM
     1 PA          18.4750    34.6380    22.4210 P.3          1 FAD311   0.0000
     2 O1A         18.7330    35.8120    23.3290 O.co2        1 FAD311   0.0000
     3 O2A         19.5720    34.3550    21.4330 O.co2        1 FAD311  -1.0000
     4 O5B         17.0660    34.8790    21.6950 O.3          1 FAD311   0.0000
     5 C5B         15.8790    35.1140    22.4400 C.3          1 FAD311   0.0000
     6 C4B         14.8540    35.9140    21.6200 C.3          1 FAD311   0.0000
     7 O4B         15.2880    37.2420    21.3630 O.3          1 FAD311   0.0000
     8 C3B         14.5240    35.3260    20.2400 C.3          1 FAD311   0.0000
     9 O3B         13.1160    35.4960    19.9820 O.3          1 FAD311   0.0000
    10 C2B         15.3880    36.1560    19.3100 C.3          1 FAD311   0.0000
    11 O2B         14.8280    36.1420    18.0270 O.3          1 FAD311   0.0000
    12 C1B         15.3400    37.5200    19.9780 C.3          1 FAD311   0.0000
    13 N9A         16.5110    38.3960    19.8900 N.pl3        1 FAD311   0.0000
    14 C8A         17.8420    38.0470    19.8960 C.2          1 FAD311   0.0000
    15 N7A         18.5690    39.1910    19.8420 N.2          1 FAD311   0.0000
    16 C5A         17.7230    40.2630    19.8420 C.ar         1 FAD311   0.0000
    17 C6A         17.9150    41.6560    19.8010 C.ar         1 FAD311   0.0000
    18 N6A         19.1440    42.1850    19.6810 N.pl3        1 FAD311   0.0000
    19 N1A         16.8080    42.4940    19.7850 N.ar         1 FAD311   0.0000
    20 C2A         15.5450    41.9690    19.8180 C.ar         1 FAD311   0.0000
    21 N3A         15.3730    40.6120    19.8540 N.ar         1 FAD311   0.0000
    22 C4A         16.4280    39.7690    19.8630 C.ar         1 FAD311   0.0000
    23 N1          17.6880    26.6720    28.3030 N.2          1 FAD311   0.0000
    24 C2          18.0500    26.6150    29.6530 C.2          1 FAD311   0.0000
    25 O2          17.3660    27.1370    30.5470 O.2          1 FAD311   0.0000
    26 N3          19.2080    25.9580    30.0020 N.pl3        1 FAD311   0.0000
    27 C4          19.9950    25.3470    29.0500 C.2          1 FAD311   0.0000
    28 O4          21.0120    24.7650    29.4470 O.2          1 FAD311   0.0000
    29 C4X         19.6300    25.4020    27.6960 C.2          1 FAD311   0.0000
    30 N5          20.4060    24.7960    26.7270 N.2          1 FAD311   0.0000
    31 C5X         20.0590    24.8540    25.3910 C.ar         1 FAD311   0.0000
    32 C6          20.8750    24.2390    24.4190 C.ar         1 FAD311   0.0000
    33 C7          20.5340    24.2980    23.0600 C.ar         1 FAD311   0.0000
    34 C7M         21.4150    23.6420    22.0420 C.3          1 FAD311   0.0000
    35 C8          19.3720    24.9890    22.6730 C.ar         1 FAD311   0.0000
    36 C8M         18.9550    25.0690    21.2210 C.3          1 FAD311   0.0000
    37 C9          18.5660    25.5960    23.6510 C.ar         1 FAD311   0.0000
    38 C9A         18.8960    25.5400    25.0110 C.ar         1 FAD311   0.0000
    39 N10         18.1090    26.1550    25.9830 N.pl3        1 FAD311   0.0000
    40 C10         18.4700    26.0750    27.3210 C.2          1 FAD311   0.0000
    41 C1'         16.8440    26.8670    25.5920 C.3          1 FAD311   0.0000
    42 C2'         16.9930    28.3720    25.4690 C.3          1 FAD311   0.0000
    43 O2'         17.3990    28.9030    26.7070 O.3          1 FAD311   0.0000
    44 C3'         15.6870    29.0340    25.0770 C.3          1 FAD311   0.0000
    45 O3'         15.4670    28.6690    23.7510 O.3          1 FAD311   0.0000
    46 C4'         15.7400    30.5560    25.2110 C.3          1 FAD311   0.0000
    47 O4'         14.4240    31.0170    25.3120 O.3          1 FAD311   0.0000
    48 C5'         16.3340    31.2620    24.0070 C.3          1 FAD311   0.0000
    49 O5'         17.7180    31.0550    24.0130 O.3          1 FAD311   0.0000
    50 P           18.7240    31.9150    23.0910 P.3          1 FAD311   0.0000
    51 O1P         20.1280    31.6310    23.5990 O.co2        1 FAD311   0.0000
    52 O2P         18.5130    31.6320    21.6370 O.co2        1 FAD311  -1.0000
    53 O3P         18.2770    33.4130    23.4120 O.3          1 FAD311   0.0000
    54 H5B1        16.1092    35.6292    23.2656 H            1 FAD311   0.0000
    55 H5B2        15.4763    34.2354    22.6968 H            1 FAD311   0.0000
    56 H4B         14.0055    35.9621    22.1470 H            1 FAD311   0.0000
    57 H3B         14.7795    34.3602    20.1949 H            1 FAD311   0.0000
    58 H5          12.8932    35.1153    19.0845 H            1 FAD311   0.0000
    59 H2B         16.3242    35.8050    19.2906 H            1 FAD311   0.0000
    60 H7          13.9948    35.5891    18.0330 H            1 FAD311   0.0000
    61 H1B         14.5180    38.0139    19.6945 H            1 FAD311   0.0000
    62 H8A         18.2077    37.1170    19.9334 H            1 FAD311   0.0000
    63 H6A1        19.2605    43.1778    19.6536 H            1 FAD311   0.0000
    64 H6A2        19.9423    41.5860    19.6191 H            1 FAD311   0.0000
    65 H2A         14.7498    42.5753    19.8158 H            1 FAD311   0.0000
    66 H13         19.4829    25.9235    30.9628 H            1 FAD311   0.0000
    67 H14         21.7042    23.7565    24.7014 H            1 FAD311   0.0000
    68 H7M1        21.0290    23.7784    21.1297 H            1 FAD311   0.0000
    69 H7M2        22.3285    24.0468    22.0814 H            1 FAD311   0.0000
    70 H7M3        21.4758    22.6627    22.2352 H            1 FAD311   0.0000
    71 H8M1        18.1097    25.5980    21.1456 H            1 FAD311   0.0000
    72 H8M2        19.6761    25.5155    20.6912 H            1 FAD311   0.0000
    73 H8M3        18.8035    24.1463    20.8664 H            1 FAD311   0.0000
    74 H21         17.7372    26.0794    23.3693 H            1 FAD311   0.0000
    75 H1'1        16.1489    26.6758    26.2851 H            1 FAD311   0.0000
    76 H1'2        16.5417    26.5081    24.7089 H            1 FAD311   0.0000
    77 H2'         17.6867    28.5786    24.7790 H            1 FAD311   0.0000
    78 H25         17.4926    28.1626    27.3727 H            1 FAD311   0.0000
    79 H3'         14.9481    28.6755    25.6475 H            1 FAD311   0.0000
    80 H27         16.3453    28.5334    23.2925 H            1 FAD311   0.0000
    81 H4'         16.2496    30.8053    26.0345 H            1 FAD311   0.0000
    82 H29         13.9894    30.6111    26.1159 H            1 FAD311   0.0000
    83 H5'1        16.1386    32.2413    24.0592 H            1 FAD311   0.0000
    84 H5'2        15.9400    30.8878    23.1675 H            1 FAD311   0.0000
@<TRIPOS>BOND
     1    1    2      ar
     2    1    3      ar
     3    1    4       1
     4    1   53       1
     5    4    5       1
     6    5    6       1
     7    6    7       1
     8    6    8       1
     9    7   12       1
    10    8    9       1
    11    8   10       1
    12   10   11       1
    13   10   12       1
    14   12   13       1
    15   13   14       1
    16   13   22       1
    17   14   15       2
    18   15   16       1
    19   16   17      ar
    20   16   22      ar
    21   17   18       1
    22   17   19      ar
    23   19   20      ar
    24   20   21      ar
    25   21   22      ar
    26   23   24       1
    27   23   40       2
    28   24   25       2
    29   24   26       1
    30   26   27       1
    31   27   28       2
    32   27   29       1
    33   29   30       2
    34   29   40       1
    35   30   31       1
    36   31   32      ar
    37   31   38      ar
    38   32   33      ar
    39   33   34       1
    40   33   35      ar
    41   35   36       1
    42   35   37      ar
    43   37   38      ar
    44   38   39       1
    45   39   40       1
    46   39   41       1
    47   41   42       1
    48   42   43       1
    49   42   44       1
    50   44   45       1
    51   44   46       1
    52   46   47       1
    53   46   48       1
    54   48   49       1
    55   49   50       1
    56   50   51      ar
    57   50   52      ar
    58   50   53       1
    59   48   84       1
    60    5   54       1
    61    5   55       1
    62    6   56       1
    63    8   57       1
    64    9   58       1
    65   10   59       1
    66   11   60       1
    67   12   61       1
    68   14   62       1
    69   18   63       1
    70   18   64       1
    71   20   65       1
    72   26   66       1
    73   32   67       1
    74   34   68       1
    75   34   69       1
    76   34   70       1
    77   36   71       1
    78   36   72       1
    79   36   73       1
    80   37   74       1
    81   41   75       1
    82   41   76       1
    83   42   77       1
    84   43   78       1
    85   44   79       1
    86   45   80       1
    87   46   81       1
    88   47   82       1
    89   48   83       1
@<TRIPOS>SUBSTRUCTURE
     1 FAD311      1 GROUP             4 C     FAD     0 **** FAD C 311
