@<TRIPOS>MOLECULE
2e82_IM3_4_ligand
   22    22     1     0     0
SMALL
NO_CHARGES


@<TRIPOS>ATOM
     1 OXT         66.0880   -70.0470    -8.7260 O.co2        1 IM33352   0.0000
     2 C           66.0840   -68.8300    -8.4150 C.2          1 IM33352   0.0000
     3 O           65.3940   -68.4170    -7.4600 O.co2        1 IM33352  -1.0000
     4 CA          66.9020   -67.8650    -9.1750 C.2          1 IM33352   0.0000
     5 N           67.3710   -68.1900   -10.3060 N.2          1 IM33352   0.0000
     6 CB          67.2420   -66.4820    -8.6630 C.3          1 IM33352   0.0000
     7 CG          68.4790   -66.6040    -7.8060 C.ar         1 IM33352   0.0000
     8 CD2         69.7560   -66.5800    -8.3810 C.ar         1 IM33352   0.0000
     9 CE2         70.8790   -66.7070    -7.5590 C.ar         1 IM33352   0.0000
    10 O14         72.1420   -66.6920    -8.0770 O.3          1 IM33352   0.0000
    11 CZ          70.6890   -66.8660    -6.0950 C.ar         1 IM33352   0.0000
    12 OH          71.7670   -66.9940    -5.2850 O.3          1 IM33352   0.0000
    13 CE1         69.4110   -66.8860    -5.5610 C.ar         1 IM33352   0.0000
    14 CD1         68.3220   -66.7550    -6.4280 C.ar         1 IM33352   0.0000
    15 HB1         66.4836   -66.1241    -8.1182 H            1 IM33352   0.0000
    16 HB2         67.4191   -65.8677    -9.4319 H            1 IM33352   0.0000
    17 HD2         69.8630   -66.4731    -9.3695 H            1 IM33352   0.0000
    18 H4          72.9321   -66.7844    -7.4710 H            1 IM33352   0.0000
    19 HH          71.6414   -67.1012    -4.2987 H            1 IM33352   0.0000
    20 HE1         69.2703   -66.9919    -4.5766 H            1 IM33352   0.0000
    21 HD1         67.3976   -66.7701    -6.0468 H            1 IM33352   0.0000
    22 H8          67.1866   -69.0983   -10.6815 H            1 IM33352   0.0000
@<TRIPOS>BOND
     1    1    2      ar
     2    2    3      ar
     3    2    4       1
     4    4    5       2
     5    4    6       1
     6    6    7       1
     7    7    8      ar
     8    7   14      ar
     9    8    9      ar
    10    9   10       1
    11    9   11      ar
    12   11   12       1
    13   11   13      ar
    14   13   14      ar
    15   14   21       1
    16    5   22       1
    17    6   15       1
    18    6   16       1
    19    8   17       1
    20   10   18       1
    21   12   19       1
    22   13   20       1
@<TRIPOS>SUBSTRUCTURE
     1 IM33352     1 GROUP             4 D     IM3     0 **** IM3 D3352
